<?xml version="1.0" encoding="UTF-8"?>

<!-- generated on 2024-10-02 00:48:40 by Eclipse SUMO netedit Version 1.20.0
-->

<additional xmlns:xsi="http://www.w3.org/2001/XMLSchema-instance" xsi:noNamespaceSchemaLocation="http://sumo.dlr.de/xsd/additional_file.xsd">
    <!-- MeanDataEdges -->
    <edgeData id="for_edge_C3B3" file="edg_data.xml" period="60.00" edges="C3B3"/>
</additional>
