<?xml version="1.0" encoding="UTF-8"?>

<!-- generated on 2024-10-02 00:48:40 by Eclipse SUMO sumo Version 1.20.0
-->

<configuration xmlns:xsi="http://www.w3.org/2001/XMLSchema-instance" xsi:noNamespaceSchemaLocation="http://sumo.dlr.de/xsd/sumoConfiguration.xsd">

    <input>
        <net-file value="grid8scenario.net.xml"/>
        <route-files value="2_to_3.rou.xml"/>
        <additional-files value="grid8scenario.add.xml,grid8scenario.tll.xml"/>
    </input>

</configuration>
