<?xml version="1.0" encoding="UTF-8"?>

<!-- generated on 2024-09-30 13:40:54 by Eclipse SUMO od2trips Version 1.20.0
<configuration xmlns:xsi="http://www.w3.org/2001/XMLSchema-instance" xsi:noNamespaceSchemaLocation="http://sumo.dlr.de/xsd/od2tripsConfiguration.xsd">

    <input>
        <taz-files value="grid8scenario.net.xml,grid8scenario.add.xml"/>
        <tazrelation-files value="2_to_3.dat.xml"/>
    </input>

    <output>
        <output-file value="2_to_3.rou.xml"/>
    </output>

</configuration>
-->

<routes xmlns:xsi="http://www.w3.org/2001/XMLSchema-instance" xsi:noNamespaceSchemaLocation="http://sumo.dlr.de/xsd/routes_file.xsd">
    <vType accel="1.0" decel="5.0" id="car" length="2.0" vClass="passenger" maxSpeed="100.0" sigma="0.0" />
    <trip id="3852" depart="0.77" from="G3H3" to="A3B3" type="car" fromTaz="taz_3" toTaz="taz_2" departLane="free" departSpeed="max"/>
    <trip id="287" depart="2.83" from="D5D6" to="D1D0" type="car" fromTaz="taz_0" toTaz="taz_1" departLane="free" departSpeed="max"/>
    <trip id="2459" depart="3.69" from="A3B3" to="G3H3" type="car" fromTaz="taz_2" toTaz="taz_3" departLane="free" departSpeed="max"/>
    <trip id="3602" depart="8.99" from="G3H3" to="A3B3" type="car" fromTaz="taz_3" toTaz="taz_2" departLane="free" departSpeed="max"/>
    <trip id="1732" depart="10.16" from="D1D0" to="D5D6" type="car" fromTaz="taz_1" toTaz="taz_0" departLane="free" departSpeed="max"/>
    <trip id="2247" depart="10.87" from="A3B3" to="G3H3" type="car" fromTaz="taz_2" toTaz="taz_3" departLane="free" departSpeed="max"/>
    <trip id="2790" depart="18.38" from="A3B3" to="G3H3" type="car" fromTaz="taz_2" toTaz="taz_3" departLane="free" departSpeed="max"/>
    <trip id="1596" depart="21.76" from="D1D0" to="D5D6" type="car" fromTaz="taz_1" toTaz="taz_0" departLane="free" departSpeed="max"/>
    <trip id="2701" depart="23.34" from="A3B3" to="G3H3" type="car" fromTaz="taz_2" toTaz="taz_3" departLane="free" departSpeed="max"/>
    <trip id="1142" depart="23.89" from="D1D0" to="D5D6" type="car" fromTaz="taz_1" toTaz="taz_0" departLane="free" departSpeed="max"/>
    <trip id="1425" depart="24.44" from="D1D0" to="D5D6" type="car" fromTaz="taz_1" toTaz="taz_0" departLane="free" departSpeed="max"/>
    <trip id="623" depart="24.98" from="D5D6" to="D1D0" type="car" fromTaz="taz_0" toTaz="taz_1" departLane="free" departSpeed="max"/>
    <trip id="1770" depart="25.86" from="D1D0" to="D5D6" type="car" fromTaz="taz_1" toTaz="taz_0" departLane="free" departSpeed="max"/>
    <trip id="3968" depart="28.73" from="G3H3" to="A3B3" type="car" fromTaz="taz_3" toTaz="taz_2" departLane="free" departSpeed="max"/>
    <trip id="3552" depart="29.89" from="G3H3" to="A3B3" type="car" fromTaz="taz_3" toTaz="taz_2" departLane="free" departSpeed="max"/>
    <trip id="1973" depart="30.26" from="D1D0" to="D5D6" type="car" fromTaz="taz_1" toTaz="taz_0" departLane="free" departSpeed="max"/>
    <trip id="1747" depart="35.00" from="D1D0" to="D5D6" type="car" fromTaz="taz_1" toTaz="taz_0" departLane="free" departSpeed="max"/>
    <trip id="1267" depart="35.56" from="D1D0" to="D5D6" type="car" fromTaz="taz_1" toTaz="taz_0" departLane="free" departSpeed="max"/>
    <trip id="817" depart="36.64" from="D5D6" to="D1D0" type="car" fromTaz="taz_0" toTaz="taz_1" departLane="free" departSpeed="max"/>
    <trip id="2971" depart="37.59" from="A3B3" to="G3H3" type="car" fromTaz="taz_2" toTaz="taz_3" departLane="free" departSpeed="max"/>
    <trip id="517" depart="37.74" from="D5D6" to="D1D0" type="car" fromTaz="taz_0" toTaz="taz_1" departLane="free" departSpeed="max"/>
    <trip id="3366" depart="42.24" from="G3H3" to="A3B3" type="car" fromTaz="taz_3" toTaz="taz_2" departLane="free" departSpeed="max"/>
    <trip id="3679" depart="42.53" from="G3H3" to="A3B3" type="car" fromTaz="taz_3" toTaz="taz_2" departLane="free" departSpeed="max"/>
    <trip id="2759" depart="45.59" from="A3B3" to="G3H3" type="car" fromTaz="taz_2" toTaz="taz_3" departLane="free" departSpeed="max"/>
    <trip id="98" depart="47.01" from="D5D6" to="D1D0" type="car" fromTaz="taz_0" toTaz="taz_1" departLane="free" departSpeed="max"/>
    <trip id="2271" depart="47.47" from="A3B3" to="G3H3" type="car" fromTaz="taz_2" toTaz="taz_3" departLane="free" departSpeed="max"/>
    <trip id="2380" depart="49.06" from="A3B3" to="G3H3" type="car" fromTaz="taz_2" toTaz="taz_3" departLane="free" departSpeed="max"/>
    <trip id="1500" depart="51.68" from="D1D0" to="D5D6" type="car" fromTaz="taz_1" toTaz="taz_0" departLane="free" departSpeed="max"/>
    <trip id="3113" depart="52.03" from="G3H3" to="A3B3" type="car" fromTaz="taz_3" toTaz="taz_2" departLane="free" departSpeed="max"/>
    <trip id="3145" depart="52.62" from="G3H3" to="A3B3" type="car" fromTaz="taz_3" toTaz="taz_2" departLane="free" departSpeed="max"/>
    <trip id="590" depart="53.69" from="D5D6" to="D1D0" type="car" fromTaz="taz_0" toTaz="taz_1" departLane="free" departSpeed="max"/>
    <trip id="3940" depart="55.11" from="G3H3" to="A3B3" type="car" fromTaz="taz_3" toTaz="taz_2" departLane="free" departSpeed="max"/>
    <trip id="6" depart="55.65" from="D5D6" to="D1D0" type="car" fromTaz="taz_0" toTaz="taz_1" departLane="free" departSpeed="max"/>
    <trip id="3390" depart="56.04" from="G3H3" to="A3B3" type="car" fromTaz="taz_3" toTaz="taz_2" departLane="free" departSpeed="max"/>
    <trip id="1286" depart="57.42" from="D1D0" to="D5D6" type="car" fromTaz="taz_1" toTaz="taz_0" departLane="free" departSpeed="max"/>
    <trip id="2909" depart="60.82" from="A3B3" to="G3H3" type="car" fromTaz="taz_2" toTaz="taz_3" departLane="free" departSpeed="max"/>
    <trip id="1152" depart="63.18" from="D1D0" to="D5D6" type="car" fromTaz="taz_1" toTaz="taz_0" departLane="free" departSpeed="max"/>
    <trip id="2177" depart="64.13" from="A3B3" to="G3H3" type="car" fromTaz="taz_2" toTaz="taz_3" departLane="free" departSpeed="max"/>
    <trip id="2706" depart="67.56" from="A3B3" to="G3H3" type="car" fromTaz="taz_2" toTaz="taz_3" departLane="free" departSpeed="max"/>
    <trip id="1975" depart="68.70" from="D1D0" to="D5D6" type="car" fromTaz="taz_1" toTaz="taz_0" departLane="free" departSpeed="max"/>
    <trip id="2266" depart="69.62" from="A3B3" to="G3H3" type="car" fromTaz="taz_2" toTaz="taz_3" departLane="free" departSpeed="max"/>
    <trip id="2413" depart="69.81" from="A3B3" to="G3H3" type="car" fromTaz="taz_2" toTaz="taz_3" departLane="free" departSpeed="max"/>
    <trip id="415" depart="70.25" from="D5D6" to="D1D0" type="car" fromTaz="taz_0" toTaz="taz_1" departLane="free" departSpeed="max"/>
    <trip id="585" depart="73.98" from="D5D6" to="D1D0" type="car" fromTaz="taz_0" toTaz="taz_1" departLane="free" departSpeed="max"/>
    <trip id="707" depart="76.05" from="D5D6" to="D1D0" type="car" fromTaz="taz_0" toTaz="taz_1" departLane="free" departSpeed="max"/>
    <trip id="2113" depart="81.58" from="A3B3" to="G3H3" type="car" fromTaz="taz_2" toTaz="taz_3" departLane="free" departSpeed="max"/>
    <trip id="3150" depart="83.37" from="G3H3" to="A3B3" type="car" fromTaz="taz_3" toTaz="taz_2" departLane="free" departSpeed="max"/>
    <trip id="2927" depart="85.77" from="A3B3" to="G3H3" type="car" fromTaz="taz_2" toTaz="taz_3" departLane="free" departSpeed="max"/>
    <trip id="1837" depart="86.41" from="D1D0" to="D5D6" type="car" fromTaz="taz_1" toTaz="taz_0" departLane="free" departSpeed="max"/>
    <trip id="2743" depart="86.44" from="A3B3" to="G3H3" type="car" fromTaz="taz_2" toTaz="taz_3" departLane="free" departSpeed="max"/>
    <trip id="789" depart="89.96" from="D5D6" to="D1D0" type="car" fromTaz="taz_0" toTaz="taz_1" departLane="free" departSpeed="max"/>
    <trip id="904" depart="92.51" from="D5D6" to="D1D0" type="car" fromTaz="taz_0" toTaz="taz_1" departLane="free" departSpeed="max"/>
    <trip id="3824" depart="93.17" from="G3H3" to="A3B3" type="car" fromTaz="taz_3" toTaz="taz_2" departLane="free" departSpeed="max"/>
    <trip id="2674" depart="94.22" from="A3B3" to="G3H3" type="car" fromTaz="taz_2" toTaz="taz_3" departLane="free" departSpeed="max"/>
    <trip id="3724" depart="95.74" from="G3H3" to="A3B3" type="car" fromTaz="taz_3" toTaz="taz_2" departLane="free" departSpeed="max"/>
    <trip id="3806" depart="96.32" from="G3H3" to="A3B3" type="car" fromTaz="taz_3" toTaz="taz_2" departLane="free" departSpeed="max"/>
    <trip id="3702" depart="98.27" from="G3H3" to="A3B3" type="car" fromTaz="taz_3" toTaz="taz_2" departLane="free" departSpeed="max"/>
    <trip id="2645" depart="101.80" from="A3B3" to="G3H3" type="car" fromTaz="taz_2" toTaz="taz_3" departLane="free" departSpeed="max"/>
    <trip id="1902" depart="103.47" from="D1D0" to="D5D6" type="car" fromTaz="taz_1" toTaz="taz_0" departLane="free" departSpeed="max"/>
    <trip id="1630" depart="103.83" from="D1D0" to="D5D6" type="car" fromTaz="taz_1" toTaz="taz_0" departLane="free" departSpeed="max"/>
    <trip id="2268" depart="104.93" from="A3B3" to="G3H3" type="car" fromTaz="taz_2" toTaz="taz_3" departLane="free" departSpeed="max"/>
    <trip id="3206" depart="108.26" from="G3H3" to="A3B3" type="car" fromTaz="taz_3" toTaz="taz_2" departLane="free" departSpeed="max"/>
    <trip id="867" depart="108.86" from="D5D6" to="D1D0" type="car" fromTaz="taz_0" toTaz="taz_1" departLane="free" departSpeed="max"/>
    <trip id="2833" depart="109.13" from="A3B3" to="G3H3" type="car" fromTaz="taz_2" toTaz="taz_3" departLane="free" departSpeed="max"/>
    <trip id="389" depart="109.27" from="D5D6" to="D1D0" type="car" fromTaz="taz_0" toTaz="taz_1" departLane="free" departSpeed="max"/>
    <trip id="2388" depart="111.09" from="A3B3" to="G3H3" type="car" fromTaz="taz_2" toTaz="taz_3" departLane="free" departSpeed="max"/>
    <trip id="402" depart="111.65" from="D5D6" to="D1D0" type="car" fromTaz="taz_0" toTaz="taz_1" departLane="free" departSpeed="max"/>
    <trip id="1945" depart="116.27" from="D1D0" to="D5D6" type="car" fromTaz="taz_1" toTaz="taz_0" departLane="free" departSpeed="max"/>
    <trip id="3977" depart="127.66" from="G3H3" to="A3B3" type="car" fromTaz="taz_3" toTaz="taz_2" departLane="free" departSpeed="max"/>
    <trip id="1664" depart="128.51" from="D1D0" to="D5D6" type="car" fromTaz="taz_1" toTaz="taz_0" departLane="free" departSpeed="max"/>
    <trip id="3944" depart="128.91" from="G3H3" to="A3B3" type="car" fromTaz="taz_3" toTaz="taz_2" departLane="free" departSpeed="max"/>
    <trip id="3729" depart="130.75" from="G3H3" to="A3B3" type="car" fromTaz="taz_3" toTaz="taz_2" departLane="free" departSpeed="max"/>
    <trip id="1215" depart="138.85" from="D1D0" to="D5D6" type="car" fromTaz="taz_1" toTaz="taz_0" departLane="free" departSpeed="max"/>
    <trip id="2983" depart="143.44" from="A3B3" to="G3H3" type="car" fromTaz="taz_2" toTaz="taz_3" departLane="free" departSpeed="max"/>
    <trip id="3761" depart="143.80" from="G3H3" to="A3B3" type="car" fromTaz="taz_3" toTaz="taz_2" departLane="free" departSpeed="max"/>
    <trip id="2051" depart="153.86" from="A3B3" to="G3H3" type="car" fromTaz="taz_2" toTaz="taz_3" departLane="free" departSpeed="max"/>
    <trip id="1547" depart="154.88" from="D1D0" to="D5D6" type="car" fromTaz="taz_1" toTaz="taz_0" departLane="free" departSpeed="max"/>
    <trip id="1411" depart="158.23" from="D1D0" to="D5D6" type="car" fromTaz="taz_1" toTaz="taz_0" departLane="free" departSpeed="max"/>
    <trip id="2340" depart="158.96" from="A3B3" to="G3H3" type="car" fromTaz="taz_2" toTaz="taz_3" departLane="free" departSpeed="max"/>
    <trip id="994" depart="161.60" from="D5D6" to="D1D0" type="car" fromTaz="taz_0" toTaz="taz_1" departLane="free" departSpeed="max"/>
    <trip id="3308" depart="162.24" from="G3H3" to="A3B3" type="car" fromTaz="taz_3" toTaz="taz_2" departLane="free" departSpeed="max"/>
    <trip id="3681" depart="168.50" from="G3H3" to="A3B3" type="car" fromTaz="taz_3" toTaz="taz_2" departLane="free" departSpeed="max"/>
    <trip id="1459" depart="168.69" from="D1D0" to="D5D6" type="car" fromTaz="taz_1" toTaz="taz_0" departLane="free" departSpeed="max"/>
    <trip id="1680" depart="169.37" from="D1D0" to="D5D6" type="car" fromTaz="taz_1" toTaz="taz_0" departLane="free" departSpeed="max"/>
    <trip id="3231" depart="169.92" from="G3H3" to="A3B3" type="car" fromTaz="taz_3" toTaz="taz_2" departLane="free" departSpeed="max"/>
    <trip id="3260" depart="169.93" from="G3H3" to="A3B3" type="car" fromTaz="taz_3" toTaz="taz_2" departLane="free" departSpeed="max"/>
    <trip id="3337" depart="170.35" from="G3H3" to="A3B3" type="car" fromTaz="taz_3" toTaz="taz_2" departLane="free" departSpeed="max"/>
    <trip id="1702" depart="175.40" from="D1D0" to="D5D6" type="car" fromTaz="taz_1" toTaz="taz_0" departLane="free" departSpeed="max"/>
    <trip id="3473" depart="178.53" from="G3H3" to="A3B3" type="car" fromTaz="taz_3" toTaz="taz_2" departLane="free" departSpeed="max"/>
    <trip id="137" depart="179.52" from="D5D6" to="D1D0" type="car" fromTaz="taz_0" toTaz="taz_1" departLane="free" departSpeed="max"/>
    <trip id="1639" depart="181.97" from="D1D0" to="D5D6" type="car" fromTaz="taz_1" toTaz="taz_0" departLane="free" departSpeed="max"/>
    <trip id="3202" depart="183.15" from="G3H3" to="A3B3" type="car" fromTaz="taz_3" toTaz="taz_2" departLane="free" departSpeed="max"/>
    <trip id="3531" depart="185.35" from="G3H3" to="A3B3" type="car" fromTaz="taz_3" toTaz="taz_2" departLane="free" departSpeed="max"/>
    <trip id="1108" depart="186.49" from="D1D0" to="D5D6" type="car" fromTaz="taz_1" toTaz="taz_0" departLane="free" departSpeed="max"/>
    <trip id="2704" depart="186.96" from="A3B3" to="G3H3" type="car" fromTaz="taz_2" toTaz="taz_3" departLane="free" departSpeed="max"/>
    <trip id="2502" depart="187.26" from="A3B3" to="G3H3" type="car" fromTaz="taz_2" toTaz="taz_3" departLane="free" departSpeed="max"/>
    <trip id="434" depart="188.24" from="D5D6" to="D1D0" type="car" fromTaz="taz_0" toTaz="taz_1" departLane="free" departSpeed="max"/>
    <trip id="3126" depart="188.75" from="G3H3" to="A3B3" type="car" fromTaz="taz_3" toTaz="taz_2" departLane="free" departSpeed="max"/>
    <trip id="3254" depart="191.17" from="G3H3" to="A3B3" type="car" fromTaz="taz_3" toTaz="taz_2" departLane="free" departSpeed="max"/>
    <trip id="3005" depart="192.98" from="G3H3" to="A3B3" type="car" fromTaz="taz_3" toTaz="taz_2" departLane="free" departSpeed="max"/>
    <trip id="1865" depart="197.45" from="D1D0" to="D5D6" type="car" fromTaz="taz_1" toTaz="taz_0" departLane="free" departSpeed="max"/>
    <trip id="3094" depart="197.45" from="G3H3" to="A3B3" type="car" fromTaz="taz_3" toTaz="taz_2" departLane="free" departSpeed="max"/>
    <trip id="260" depart="202.95" from="D5D6" to="D1D0" type="car" fromTaz="taz_0" toTaz="taz_1" departLane="free" departSpeed="max"/>
    <trip id="1931" depart="204.31" from="D1D0" to="D5D6" type="car" fromTaz="taz_1" toTaz="taz_0" departLane="free" departSpeed="max"/>
    <trip id="2235" depart="205.13" from="A3B3" to="G3H3" type="car" fromTaz="taz_2" toTaz="taz_3" departLane="free" departSpeed="max"/>
    <trip id="63" depart="207.72" from="D5D6" to="D1D0" type="car" fromTaz="taz_0" toTaz="taz_1" departLane="free" departSpeed="max"/>
    <trip id="338" depart="208.04" from="D5D6" to="D1D0" type="car" fromTaz="taz_0" toTaz="taz_1" departLane="free" departSpeed="max"/>
    <trip id="2392" depart="211.36" from="A3B3" to="G3H3" type="car" fromTaz="taz_2" toTaz="taz_3" departLane="free" departSpeed="max"/>
    <trip id="1096" depart="211.69" from="D1D0" to="D5D6" type="car" fromTaz="taz_1" toTaz="taz_0" departLane="free" departSpeed="max"/>
    <trip id="2727" depart="219.54" from="A3B3" to="G3H3" type="car" fromTaz="taz_2" toTaz="taz_3" departLane="free" departSpeed="max"/>
    <trip id="1058" depart="220.53" from="D1D0" to="D5D6" type="car" fromTaz="taz_1" toTaz="taz_0" departLane="free" departSpeed="max"/>
    <trip id="2880" depart="221.98" from="A3B3" to="G3H3" type="car" fromTaz="taz_2" toTaz="taz_3" departLane="free" departSpeed="max"/>
    <trip id="1685" depart="224.98" from="D1D0" to="D5D6" type="car" fromTaz="taz_1" toTaz="taz_0" departLane="free" departSpeed="max"/>
    <trip id="3253" depart="224.99" from="G3H3" to="A3B3" type="car" fromTaz="taz_3" toTaz="taz_2" departLane="free" departSpeed="max"/>
    <trip id="2090" depart="228.81" from="A3B3" to="G3H3" type="car" fromTaz="taz_2" toTaz="taz_3" departLane="free" departSpeed="max"/>
    <trip id="275" depart="229.61" from="D5D6" to="D1D0" type="car" fromTaz="taz_0" toTaz="taz_1" departLane="free" departSpeed="max"/>
    <trip id="3680" depart="231.93" from="G3H3" to="A3B3" type="car" fromTaz="taz_3" toTaz="taz_2" departLane="free" departSpeed="max"/>
    <trip id="2817" depart="233.34" from="A3B3" to="G3H3" type="car" fromTaz="taz_2" toTaz="taz_3" departLane="free" departSpeed="max"/>
    <trip id="3974" depart="234.83" from="G3H3" to="A3B3" type="car" fromTaz="taz_3" toTaz="taz_2" departLane="free" departSpeed="max"/>
    <trip id="1221" depart="243.18" from="D1D0" to="D5D6" type="car" fromTaz="taz_1" toTaz="taz_0" departLane="free" departSpeed="max"/>
    <trip id="3345" depart="247.49" from="G3H3" to="A3B3" type="car" fromTaz="taz_3" toTaz="taz_2" departLane="free" departSpeed="max"/>
    <trip id="3268" depart="251.43" from="G3H3" to="A3B3" type="car" fromTaz="taz_3" toTaz="taz_2" departLane="free" departSpeed="max"/>
    <trip id="1735" depart="251.52" from="D1D0" to="D5D6" type="car" fromTaz="taz_1" toTaz="taz_0" departLane="free" departSpeed="max"/>
    <trip id="854" depart="251.89" from="D5D6" to="D1D0" type="car" fromTaz="taz_0" toTaz="taz_1" departLane="free" departSpeed="max"/>
    <trip id="1460" depart="252.05" from="D1D0" to="D5D6" type="car" fromTaz="taz_1" toTaz="taz_0" departLane="free" departSpeed="max"/>
    <trip id="2400" depart="252.13" from="A3B3" to="G3H3" type="car" fromTaz="taz_2" toTaz="taz_3" departLane="free" departSpeed="max"/>
    <trip id="3313" depart="252.38" from="G3H3" to="A3B3" type="car" fromTaz="taz_3" toTaz="taz_2" departLane="free" departSpeed="max"/>
    <trip id="3302" depart="256.52" from="G3H3" to="A3B3" type="car" fromTaz="taz_3" toTaz="taz_2" departLane="free" departSpeed="max"/>
    <trip id="2127" depart="261.02" from="A3B3" to="G3H3" type="car" fromTaz="taz_2" toTaz="taz_3" departLane="free" departSpeed="max"/>
    <trip id="802" depart="263.80" from="D5D6" to="D1D0" type="car" fromTaz="taz_0" toTaz="taz_1" departLane="free" departSpeed="max"/>
    <trip id="3513" depart="269.68" from="G3H3" to="A3B3" type="car" fromTaz="taz_3" toTaz="taz_2" departLane="free" departSpeed="max"/>
    <trip id="2733" depart="270.35" from="A3B3" to="G3H3" type="car" fromTaz="taz_2" toTaz="taz_3" departLane="free" departSpeed="max"/>
    <trip id="2668" depart="270.49" from="A3B3" to="G3H3" type="car" fromTaz="taz_2" toTaz="taz_3" departLane="free" departSpeed="max"/>
    <trip id="3280" depart="274.26" from="G3H3" to="A3B3" type="car" fromTaz="taz_3" toTaz="taz_2" departLane="free" departSpeed="max"/>
    <trip id="3102" depart="277.93" from="G3H3" to="A3B3" type="car" fromTaz="taz_3" toTaz="taz_2" departLane="free" departSpeed="max"/>
    <trip id="2283" depart="278.20" from="A3B3" to="G3H3" type="car" fromTaz="taz_2" toTaz="taz_3" departLane="free" departSpeed="max"/>
    <trip id="616" depart="278.45" from="D5D6" to="D1D0" type="car" fromTaz="taz_0" toTaz="taz_1" departLane="free" departSpeed="max"/>
    <trip id="3890" depart="280.40" from="G3H3" to="A3B3" type="car" fromTaz="taz_3" toTaz="taz_2" departLane="free" departSpeed="max"/>
    <trip id="361" depart="280.53" from="D5D6" to="D1D0" type="car" fromTaz="taz_0" toTaz="taz_1" departLane="free" departSpeed="max"/>
    <trip id="3178" depart="285.21" from="G3H3" to="A3B3" type="car" fromTaz="taz_3" toTaz="taz_2" departLane="free" departSpeed="max"/>
    <trip id="1463" depart="287.53" from="D1D0" to="D5D6" type="car" fromTaz="taz_1" toTaz="taz_0" departLane="free" departSpeed="max"/>
    <trip id="3395" depart="291.32" from="G3H3" to="A3B3" type="car" fromTaz="taz_3" toTaz="taz_2" departLane="free" departSpeed="max"/>
    <trip id="3483" depart="292.16" from="G3H3" to="A3B3" type="car" fromTaz="taz_3" toTaz="taz_2" departLane="free" departSpeed="max"/>
    <trip id="200" depart="292.21" from="D5D6" to="D1D0" type="car" fromTaz="taz_0" toTaz="taz_1" departLane="free" departSpeed="max"/>
    <trip id="2767" depart="292.52" from="A3B3" to="G3H3" type="car" fromTaz="taz_2" toTaz="taz_3" departLane="free" departSpeed="max"/>
    <trip id="861" depart="298.89" from="D5D6" to="D1D0" type="car" fromTaz="taz_0" toTaz="taz_1" departLane="free" departSpeed="max"/>
    <trip id="3924" depart="301.75" from="G3H3" to="A3B3" type="car" fromTaz="taz_3" toTaz="taz_2" departLane="free" departSpeed="max"/>
    <trip id="959" depart="302.63" from="D5D6" to="D1D0" type="car" fromTaz="taz_0" toTaz="taz_1" departLane="free" departSpeed="max"/>
    <trip id="372" depart="306.36" from="D5D6" to="D1D0" type="car" fromTaz="taz_0" toTaz="taz_1" departLane="free" departSpeed="max"/>
    <trip id="2389" depart="306.87" from="A3B3" to="G3H3" type="car" fromTaz="taz_2" toTaz="taz_3" departLane="free" departSpeed="max"/>
    <trip id="2944" depart="307.51" from="A3B3" to="G3H3" type="car" fromTaz="taz_2" toTaz="taz_3" departLane="free" departSpeed="max"/>
    <trip id="1197" depart="310.17" from="D1D0" to="D5D6" type="car" fromTaz="taz_1" toTaz="taz_0" departLane="free" departSpeed="max"/>
    <trip id="3168" depart="315.02" from="G3H3" to="A3B3" type="car" fromTaz="taz_3" toTaz="taz_2" departLane="free" departSpeed="max"/>
    <trip id="3116" depart="315.19" from="G3H3" to="A3B3" type="car" fromTaz="taz_3" toTaz="taz_2" departLane="free" departSpeed="max"/>
    <trip id="551" depart="315.21" from="D5D6" to="D1D0" type="car" fromTaz="taz_0" toTaz="taz_1" departLane="free" departSpeed="max"/>
    <trip id="1300" depart="315.96" from="D1D0" to="D5D6" type="car" fromTaz="taz_1" toTaz="taz_0" departLane="free" departSpeed="max"/>
    <trip id="1065" depart="317.02" from="D1D0" to="D5D6" type="car" fromTaz="taz_1" toTaz="taz_0" departLane="free" departSpeed="max"/>
    <trip id="1044" depart="318.06" from="D1D0" to="D5D6" type="car" fromTaz="taz_1" toTaz="taz_0" departLane="free" departSpeed="max"/>
    <trip id="873" depart="318.37" from="D5D6" to="D1D0" type="car" fromTaz="taz_0" toTaz="taz_1" departLane="free" departSpeed="max"/>
    <trip id="2267" depart="322.01" from="A3B3" to="G3H3" type="car" fromTaz="taz_2" toTaz="taz_3" departLane="free" departSpeed="max"/>
    <trip id="2274" depart="324.36" from="A3B3" to="G3H3" type="car" fromTaz="taz_2" toTaz="taz_3" departLane="free" departSpeed="max"/>
    <trip id="183" depart="326.27" from="D5D6" to="D1D0" type="car" fromTaz="taz_0" toTaz="taz_1" departLane="free" departSpeed="max"/>
    <trip id="347" depart="327.86" from="D5D6" to="D1D0" type="car" fromTaz="taz_0" toTaz="taz_1" departLane="free" departSpeed="max"/>
    <trip id="3085" depart="333.06" from="G3H3" to="A3B3" type="car" fromTaz="taz_3" toTaz="taz_2" departLane="free" departSpeed="max"/>
    <trip id="3038" depart="334.44" from="G3H3" to="A3B3" type="car" fromTaz="taz_3" toTaz="taz_2" departLane="free" departSpeed="max"/>
    <trip id="2043" depart="337.06" from="A3B3" to="G3H3" type="car" fromTaz="taz_2" toTaz="taz_3" departLane="free" departSpeed="max"/>
    <trip id="2601" depart="337.08" from="A3B3" to="G3H3" type="car" fromTaz="taz_2" toTaz="taz_3" departLane="free" departSpeed="max"/>
    <trip id="1374" depart="337.81" from="D1D0" to="D5D6" type="car" fromTaz="taz_1" toTaz="taz_0" departLane="free" departSpeed="max"/>
    <trip id="928" depart="338.45" from="D5D6" to="D1D0" type="car" fromTaz="taz_0" toTaz="taz_1" departLane="free" departSpeed="max"/>
    <trip id="3284" depart="339.07" from="G3H3" to="A3B3" type="car" fromTaz="taz_3" toTaz="taz_2" departLane="free" departSpeed="max"/>
    <trip id="581" depart="340.80" from="D5D6" to="D1D0" type="car" fromTaz="taz_0" toTaz="taz_1" departLane="free" departSpeed="max"/>
    <trip id="560" depart="342.66" from="D5D6" to="D1D0" type="car" fromTaz="taz_0" toTaz="taz_1" departLane="free" departSpeed="max"/>
    <trip id="353" depart="343.35" from="D5D6" to="D1D0" type="car" fromTaz="taz_0" toTaz="taz_1" departLane="free" departSpeed="max"/>
    <trip id="1860" depart="344.70" from="D1D0" to="D5D6" type="car" fromTaz="taz_1" toTaz="taz_0" departLane="free" departSpeed="max"/>
    <trip id="2447" depart="349.54" from="A3B3" to="G3H3" type="car" fromTaz="taz_2" toTaz="taz_3" departLane="free" departSpeed="max"/>
    <trip id="3787" depart="351.14" from="G3H3" to="A3B3" type="car" fromTaz="taz_3" toTaz="taz_2" departLane="free" departSpeed="max"/>
    <trip id="2490" depart="352.80" from="A3B3" to="G3H3" type="car" fromTaz="taz_2" toTaz="taz_3" departLane="free" departSpeed="max"/>
    <trip id="50" depart="353.09" from="D5D6" to="D1D0" type="car" fromTaz="taz_0" toTaz="taz_1" departLane="free" departSpeed="max"/>
    <trip id="1123" depart="355.02" from="D1D0" to="D5D6" type="car" fromTaz="taz_1" toTaz="taz_0" departLane="free" departSpeed="max"/>
    <trip id="2037" depart="356.94" from="A3B3" to="G3H3" type="car" fromTaz="taz_2" toTaz="taz_3" departLane="free" departSpeed="max"/>
    <trip id="1745" depart="359.12" from="D1D0" to="D5D6" type="car" fromTaz="taz_1" toTaz="taz_0" departLane="free" departSpeed="max"/>
    <trip id="1171" depart="360.45" from="D1D0" to="D5D6" type="car" fromTaz="taz_1" toTaz="taz_0" departLane="free" departSpeed="max"/>
    <trip id="3429" depart="367.31" from="G3H3" to="A3B3" type="car" fromTaz="taz_3" toTaz="taz_2" departLane="free" departSpeed="max"/>
    <trip id="1278" depart="370.43" from="D1D0" to="D5D6" type="car" fromTaz="taz_1" toTaz="taz_0" departLane="free" departSpeed="max"/>
    <trip id="2574" depart="370.87" from="A3B3" to="G3H3" type="car" fromTaz="taz_2" toTaz="taz_3" departLane="free" departSpeed="max"/>
    <trip id="1864" depart="372.60" from="D1D0" to="D5D6" type="car" fromTaz="taz_1" toTaz="taz_0" departLane="free" departSpeed="max"/>
    <trip id="2990" depart="380.11" from="A3B3" to="G3H3" type="car" fromTaz="taz_2" toTaz="taz_3" departLane="free" departSpeed="max"/>
    <trip id="8" depart="381.92" from="D5D6" to="D1D0" type="car" fromTaz="taz_0" toTaz="taz_1" departLane="free" departSpeed="max"/>
    <trip id="2742" depart="381.98" from="A3B3" to="G3H3" type="car" fromTaz="taz_2" toTaz="taz_3" departLane="free" departSpeed="max"/>
    <trip id="1780" depart="382.03" from="D1D0" to="D5D6" type="car" fromTaz="taz_1" toTaz="taz_0" departLane="free" departSpeed="max"/>
    <trip id="3629" depart="385.25" from="G3H3" to="A3B3" type="car" fromTaz="taz_3" toTaz="taz_2" departLane="free" departSpeed="max"/>
    <trip id="66" depart="386.17" from="D5D6" to="D1D0" type="car" fromTaz="taz_0" toTaz="taz_1" departLane="free" departSpeed="max"/>
    <trip id="3234" depart="386.87" from="G3H3" to="A3B3" type="car" fromTaz="taz_3" toTaz="taz_2" departLane="free" departSpeed="max"/>
    <trip id="1055" depart="391.58" from="D1D0" to="D5D6" type="car" fromTaz="taz_1" toTaz="taz_0" departLane="free" departSpeed="max"/>
    <trip id="2580" depart="393.86" from="A3B3" to="G3H3" type="car" fromTaz="taz_2" toTaz="taz_3" departLane="free" departSpeed="max"/>
    <trip id="1487" depart="397.81" from="D1D0" to="D5D6" type="car" fromTaz="taz_1" toTaz="taz_0" departLane="free" departSpeed="max"/>
    <trip id="2515" depart="398.25" from="A3B3" to="G3H3" type="car" fromTaz="taz_2" toTaz="taz_3" departLane="free" departSpeed="max"/>
    <trip id="2993" depart="398.36" from="A3B3" to="G3H3" type="car" fromTaz="taz_2" toTaz="taz_3" departLane="free" departSpeed="max"/>
    <trip id="2835" depart="402.46" from="A3B3" to="G3H3" type="car" fromTaz="taz_2" toTaz="taz_3" departLane="free" departSpeed="max"/>
    <trip id="2149" depart="404.33" from="A3B3" to="G3H3" type="car" fromTaz="taz_2" toTaz="taz_3" departLane="free" departSpeed="max"/>
    <trip id="3047" depart="404.34" from="G3H3" to="A3B3" type="car" fromTaz="taz_3" toTaz="taz_2" departLane="free" departSpeed="max"/>
    <trip id="3129" depart="410.15" from="G3H3" to="A3B3" type="car" fromTaz="taz_3" toTaz="taz_2" departLane="free" departSpeed="max"/>
    <trip id="1409" depart="410.22" from="D1D0" to="D5D6" type="car" fromTaz="taz_1" toTaz="taz_0" departLane="free" departSpeed="max"/>
    <trip id="2164" depart="410.42" from="A3B3" to="G3H3" type="car" fromTaz="taz_2" toTaz="taz_3" departLane="free" departSpeed="max"/>
    <trip id="3133" depart="412.25" from="G3H3" to="A3B3" type="car" fromTaz="taz_3" toTaz="taz_2" departLane="free" departSpeed="max"/>
    <trip id="2372" depart="412.43" from="A3B3" to="G3H3" type="car" fromTaz="taz_2" toTaz="taz_3" departLane="free" departSpeed="max"/>
    <trip id="3018" depart="414.61" from="G3H3" to="A3B3" type="car" fromTaz="taz_3" toTaz="taz_2" departLane="free" departSpeed="max"/>
    <trip id="2834" depart="417.94" from="A3B3" to="G3H3" type="car" fromTaz="taz_2" toTaz="taz_3" departLane="free" departSpeed="max"/>
    <trip id="3793" depart="418.13" from="G3H3" to="A3B3" type="car" fromTaz="taz_3" toTaz="taz_2" departLane="free" departSpeed="max"/>
    <trip id="2148" depart="419.43" from="A3B3" to="G3H3" type="car" fromTaz="taz_2" toTaz="taz_3" departLane="free" departSpeed="max"/>
    <trip id="1571" depart="420.35" from="D1D0" to="D5D6" type="car" fromTaz="taz_1" toTaz="taz_0" departLane="free" departSpeed="max"/>
    <trip id="322" depart="420.68" from="D5D6" to="D1D0" type="car" fromTaz="taz_0" toTaz="taz_1" departLane="free" departSpeed="max"/>
    <trip id="1097" depart="423.05" from="D1D0" to="D5D6" type="car" fromTaz="taz_1" toTaz="taz_0" departLane="free" departSpeed="max"/>
    <trip id="132" depart="424.84" from="D5D6" to="D1D0" type="car" fromTaz="taz_0" toTaz="taz_1" departLane="free" departSpeed="max"/>