<?xml version="1.0" encoding="UTF-8"?>

<!-- generated on 2024-09-27 00:11:09 by Eclipse SUMO netedit Version 1.20.0
-->

<additional xmlns:xsi="http://www.w3.org/2001/XMLSchema-instance" xsi:noNamespaceSchemaLocation="http://sumo.dlr.de/xsd/additional_file.xsd">
    <edgeData id='for_edge_C3B3' file='edge_data.xml' period='60' edges='C3B3'/>
</additional>